*HEADING
hemisphere0
******************************************************************
** Model: C:\Users\pkrysl\Documents\Autodesk simulations\hemisphere0.inp
** Created by Autodesk Algor FEA Translation Utility	Version 2013.00-WIN  28-Feb-2012
******************************************************************
**
*NODE, SYSTEM=RC
1, 9.980000E+003, 0.000000E+000, 0.000000E+000
2, 0.000000E+000, 0.000000E+000, 9.980000E+003
3, 2.766836E-013, 9.980000E+003, 0.000000E+000
4, 0.000000E+000, 0.000000E+000, 1.002000E+004
5, 3.067740E-013, 1.002000E+004, 0.000000E+000
6, 1.002000E+004, 0.000000E+000, 0.000000E+000
7, 9.967191E+003, 0.000000E+000, 5.054787E+002
8, 9.928796E+003, 0.000000E+000, 1.009660E+003
9, 9.864914E+003, 0.000000E+000, 1.511249E+003
10, 9.775709E+003, 0.000000E+000, 2.008959E+003
11, 9.661410E+003, 0.000000E+000, 2.501512E+003
12, 9.522310E+003, 0.000000E+000, 2.987644E+003
13, 9.358766E+003, 0.000000E+000, 3.466106E+003
14, 9.171199E+003, 0.000000E+000, 3.935671E+003
15, 8.960089E+003, 0.000000E+000, 4.395134E+003
16, 8.725979E+003, 0.000000E+000, 4.843314E+003
17, 8.469470E+003, 0.000000E+000, 5.279061E+003
18, 8.191219E+003, 0.000000E+000, 5.701257E+003
19, 7.891942E+003, 0.000000E+000, 6.108818E+003
20, 7.572406E+003, 0.000000E+000, 6.500697E+003
** ... 8565 like lines cut
*ELEMENT, TYPE=C3D10, ELSET=T101
1,889,187,36,2,6090,1475,5958,5896,1477,1476
2,37,187,98,889,1479,6000,3678,5959,6090,4045
3,6,127,831,5891,3775,3871,3869,5899,6060,8580
4,7,831,127,5891,5900,3871,3773,5901,8580,6060
5,7,216,831,5891,1594,6205,5900,5901,6207,8580
6,6,7,127,5891,3774,3773,3775,5899,5901,6060
7,1,216,5891,96,1598,6207,5895,1597,1596,5999
8,1,6,186,5891,3776,3779,3778,5895,5899,6088
9,67,860,157,5892,5964,3958,3864,5965,8581,6062
10,126,860,217,5892,3960,6208,6058,6059,8581,6210
11,3,5892,217,67,5897,6210,1602,1603,5965,1604
12,67,217,860,5892,1604,6208,5964,5965,6210,8581
13,5,67,157,5892,3867,3864,3868,5898,5965,6062
14,114,872,873,229,3995,3999,3997,6033,6233,6234
15,114,113,5893,873,3632,6032,6034,3997,3998,8582
16,113,230,5893,873,6030,6237,6032,3998,6235,8582
17,230,54,873,229,1655,5961,6235,1656,1649,6234
18,339,873,229,230,6616,6234,2035,2039,6235,1656
19,92,182,181,836,3789,3794,3793,5998,3884,3885
20,181,836,837,91,3885,3889,3887,3792,5996,5997
** ... 4138 like lines cut
*SOLID SECTION, ELSET=T101, MATERIAL=M1
*MATERIAL, NAME=M1
*ELASTIC, TYPE=ISOTROPIC
6.825000E+004, 0.300000, 0.000000 
*DENSITY
0.000000
*EXPANSION, TYPE=ISO
1.200000E-005
*BOUNDARY
1, 4, 6
2, 4, 6
3, 4, 6
4, 4, 6
5, 4, 6
6, 4, 6
7, 4, 6
8, 4, 6
9, 4, 6
10, 4, 6
11, 4, 6
12, 4, 6
13, 4, 6
14, 4, 6
15, 4, 6
16, 4, 6
17, 4, 6
18, 4, 6
19, 4, 6
20, 4, 6
** ... 3661 like lines cut
3682, ENCASTRE
3683, 4, 6
3684, 4, 6
3685, 4, 6
3686, 4, 6
3687, 4, 6
3688, 4, 6
3689, 4, 6
3690, 4, 6
3691, 4, 6
3692, 4, 6
3693, 4, 6
3694, 4, 6
3695, 4, 6
3696, 4, 6
3697, 4, 6
3698, 4, 6
3699, 4, 6
3700, 4, 6
3701, 4, 6
3702, 4, 6
** ... 4883 like lines cut
*STEP
*STATIC
*CLOAD
1, 1, -666.7
3, 2, 666.7
5, 2, 666.7
6, 1, -666.7
3592, 2, 666.7
3776, 1, -666.7
*END STEP
