*HEADING
hemisphere000
******************************************************************
** Model: C:\Users\pkrysl\Documents\Autodesk simulations\hemisphere000.inp
** Created by Autodesk Algor FEA Translation Utility	Version 2013.00-WIN  28-Feb-2012
******************************************************************
**
*NODE, SYSTEM=RC
1, 9.980000E+003, 0.000000E+000, 0.000000E+000
2, 0.000000E+000, 0.000000E+000, 9.980000E+003
3, 2.766836E-013, 9.980000E+003, 0.000000E+000
4, 0.000000E+000, 0.000000E+000, 1.002000E+004
5, 3.067740E-013, 1.002000E+004, 0.000000E+000
6, 1.002000E+004, 0.000000E+000, 0.000000E+000
7, 9.788237E+003, 0.000000E+000, 1.947001E+003
8, 9.220318E+003, 0.000000E+000, 3.819181E+003
9, 8.298067E+003, 0.000000E+000, 5.544591E+003
10, 7.056926E+003, 0.000000E+000, 7.056926E+003
11, 5.544591E+003, 0.000000E+000, 8.298067E+003
12, 3.819181E+003, 0.000000E+000, 9.220318E+003
13, 1.947001E+003, 0.000000E+000, 9.788237E+003
14, 0.000000E+000, 1.947001E+003, 9.788237E+003
15, 0.000000E+000, 3.819181E+003, 9.220318E+003
16, 0.000000E+000, 5.544591E+003, 8.298067E+003
17, 0.000000E+000, 7.056926E+003, 7.056926E+003
18, 0.000000E+000, 8.298067E+003, 5.544591E+003
19, 0.000000E+000, 9.220318E+003, 3.819181E+003
20, 0.000000E+000, 9.788237E+003, 1.947001E+003
** ... 652 like lines cut
*ELEMENT, TYPE=C3D10, ELSET=T101
1,78,117,82,84,627,645,262,272,656,271
2,122,84,82,117,657,271,647,478,656,645
3,122,82,83,118,647,265,652,480,646,650
4,78,106,107,117,625,422,626,627,457,459
5,114,83,73,121,648,264,608,473,651,610
6,73,118,113,121,609,463,607,610,474,472
7,85,122,119,120,662,482,660,661,479,469
8,80,116,85,120,638,659,273,639,471,661
9,65,66,70,112,200,221,217,585,589,598
10,80,69,111,110,252,596,636,635,595,436
11,92,66,91,483,588,587,371,665,590,664
12,85,84,82,122,276,271,278,662,657,647
13,85,83,79,484,275,266,274,663,653,634
14,82,78,107,117,262,626,644,645,627,459
15,104,116,105,81,453,454,416,640,643,641
16,82,117,107,118,645,459,644,646,461,460
17,81,85,116,84,277,659,643,270,276,655
18,76,77,106,58,243,622,620,238,242,561
19,485,106,76,77,668,620,621,624,622,243
20,105,106,76,485,419,620,619,667,668,621
** ... 283 like lines cut
*SOLID SECTION, ELSET=T101, MATERIAL=M1
*MATERIAL, NAME=M1
*ELASTIC, TYPE=ISOTROPIC
3.700000E+005, 0.220000, 0.000000 
*DENSITY
0.000000
*EXPANSION, TYPE=ISO
0.000000E+000
*BOUNDARY
1, 4, 6
2, 4, 6
3, 4, 6
4, 4, 6
5, 4, 6
6, 4, 6
7, 4, 6
8, 4, 6
9, 4, 6
10, 4, 6
11, 4, 6
12, 4, 6
13, 4, 6
14, 4, 6
15, 4, 6
16, 4, 6
17, 4, 6
18, 4, 6
19, 4, 6
20, 4, 6
** ... 652 like lines cut
*STEP
*STATIC
*END STEP
