*HEADING
hemisphere00
******************************************************************
** Model: C:\Users\pkrysl\Documents\Autodesk simulations\hemisphere00.inp
** Created by Autodesk Algor FEA Translation Utility	Version 2013.00-WIN  28-Feb-2012
******************************************************************
**
*NODE, SYSTEM=RC
1, 9.980000E+003, 0.000000E+000, 0.000000E+000
2, 0.000000E+000, 0.000000E+000, 9.980000E+003
3, 2.766836E-013, 9.980000E+003, 0.000000E+000
4, 0.000000E+000, 0.000000E+000, 1.002000E+004
5, 3.067740E-013, 1.002000E+004, 0.000000E+000
6, 1.002000E+004, 0.000000E+000, 0.000000E+000
7, 9.931944E+003, 0.000000E+000, 9.782111E+002
8, 9.788237E+003, 0.000000E+000, 1.947001E+003
9, 9.550265E+003, 0.000000E+000, 2.897041E+003
10, 9.220318E+003, 0.000000E+000, 3.819181E+003
11, 8.801574E+003, 0.000000E+000, 4.704539E+003
12, 8.298067E+003, 0.000000E+000, 5.544591E+003
13, 7.714644E+003, 0.000000E+000, 6.331245E+003
14, 7.056926E+003, 0.000000E+000, 7.056926E+003
15, 6.331245E+003, 0.000000E+000, 7.714644E+003
16, 5.544591E+003, 0.000000E+000, 8.298067E+003
17, 4.704539E+003, 0.000000E+000, 8.801574E+003
18, 3.819181E+003, 0.000000E+000, 9.220318E+003
19, 2.897041E+003, 0.000000E+000, 9.550265E+003
20, 1.947001E+003, 0.000000E+000, 9.788237E+003
** ... 2373 like lines cut
*ELEMENT, TYPE=C3D10, ELSET=T101
1,400,247,416,230,2338,2340,1651,2268,953,2270
2,392,241,391,410,2317,2316,1571,1632,2318,1630
3,207,230,400,401,896,2268,2180,2181,2269,1602
4,367,220,366,391,2233,2232,1490,1569,2234,1567
5,353,354,179,381,1449,2072,2071,1534,1535,2075
6,336,367,193,366,1489,2128,2126,1488,1490,2127
7,143,142,352,178,619,1927,1930,728,729,2067
8,132,323,269,133,1886,1349,1883,578,1888,1887
9,112,274,303,138,1827,1288,1830,602,1906,1907
10,73,14,105,13,1083,460,1770,1085,459,458
11,57,284,121,283,1226,1847,1741,1225,1227,1846
12,282,59,28,58,1220,1035,1719,1222,1037,1036
13,234,419,251,233,2287,2355,965,910,2281,966
14,423,403,233,419,1658,2279,2282,1662,1660,2281
15,403,423,249,417,1658,2347,2344,1657,1659,2345
16,234,404,419,233,2284,1661,2287,910,2280,2281
17,234,405,419,404,2285,1663,2287,2284,1614,1661
18,250,411,412,419,2348,1639,2349,2350,1664,1676
19,210,403,382,404,2191,1607,2189,2192,1611,1609
20,210,382,383,404,2189,1542,2190,2192,1609,1610
** ... 1104 like lines cut
*SOLID SECTION, ELSET=T101, MATERIAL=M1
*MATERIAL, NAME=M1
*ELASTIC, TYPE=ISOTROPIC
3.700000E+005, 0.220000, 0.000000 
*DENSITY
0.000000
*EXPANSION, TYPE=ISO
0.000000E+000
*BOUNDARY
1, 4, 6
2, 4, 6
3, 4, 6
4, 4, 6
5, 4, 6
6, 4, 6
7, 4, 6
8, 4, 6
9, 4, 6
10, 4, 6
11, 4, 6
12, 4, 6
13, 4, 6
14, 4, 6
15, 4, 6
16, 4, 6
17, 4, 6
18, 4, 6
19, 4, 6
20, 4, 6
** ... 2373 like lines cut
*STEP
*STATIC
*END STEP
