*HEADING
hemisphere1
******************************************************************
** Model: C:\Users\pkrysl\Documents\Autodesk simulations\hemisphere1.inp
** Created by Autodesk Algor FEA Translation Utility	Version 2013.00-WIN  28-Feb-2012
******************************************************************
**
*NODE, SYSTEM=RC
1, 9.980000E+003, 0.000000E+000, 0.000000E+000
2, 0.000000E+000, 0.000000E+000, 9.980000E+003
3, 2.766836E-013, 9.980000E+003, 0.000000E+000
4, 0.000000E+000, 0.000000E+000, 1.002000E+004
5, 3.067740E-013, 1.002000E+004, 0.000000E+000
6, 1.002000E+004, 0.000000E+000, 0.000000E+000
7, 9.975447E+003, 0.000000E+000, 3.014262E+002
8, 9.961792E+003, 0.000000E+000, 6.025774E+002
9, 9.939048E+003, 0.000000E+000, 9.031788E+002
10, 9.907235E+003, 0.000000E+000, 1.202956E+003
11, 9.866382E+003, 0.000000E+000, 1.501636E+003
12, 9.816527E+003, 0.000000E+000, 1.798945E+003
13, 9.757715E+003, 0.000000E+000, 2.094613E+003
14, 9.689999E+003, 0.000000E+000, 2.388370E+003
15, 9.613443E+003, 0.000000E+000, 2.679948E+003
16, 9.528114E+003, 0.000000E+000, 2.969080E+003
17, 9.434092E+003, 0.000000E+000, 3.255504E+003
18, 9.331462E+003, 0.000000E+000, 3.538957E+003
19, 9.220318E+003, 0.000000E+000, 3.819181E+003
20, 9.100760E+003, 0.000000E+000, 4.095920E+003
** ... 23400 like lines cut
*ELEMENT, TYPE=C3D10, ELSET=T101
1,2088,3934,3913,3923,23186,15744,23183,23184,15778,15776
2,2101,3914,3915,2118,23242,15681,23243,9682,23304,23305
3,2137,2140,3981,2146,9782,23395,23383,9783,9780,23420
4,3897,2062,2100,2078,23082,9617,23234,23147,9500,9621
5,3909,2061,3908,3942,23078,23077,15662,15771,23079,15769
6,3912,2048,3896,3934,23025,23024,15624,15743,23027,15741
7,3896,2047,3895,3933,23020,23019,15621,15740,23021,15738
8,3855,3856,1990,3899,15497,22793,22792,15630,15631,22795
9,3884,3837,1952,3838,15582,22640,22642,15584,15439,22641
10,3786,3854,2035,1951,15491,22975,22973,22635,22638,9415
11,3822,1970,3821,3869,22713,22712,15386,15537,22714,15535
12,3821,1969,3820,3868,22709,22708,15383,15534,22710,15532
13,3806,3807,1956,3855,15341,22656,22655,15492,15493,22659
14,3805,3786,1951,3854,15391,22635,22637,15490,15491,22638
15,3804,3854,1950,3853,15488,22632,22630,15487,15489,22631
16,2014,1981,2015,3779,9346,9350,9351,22891,22761,22895
17,3764,1908,3763,3821,22465,22464,15203,15384,22466,15382
18,3743,1886,3742,3804,22375,22374,15138,15329,22376,15327
19,1878,1944,3735,1879,9122,22603,22341,8923,9121,22345
20,3690,1832,3689,3756,22157,22156,14975,15180,22159,15178
** ... 11457 like lines cut
*SOLID SECTION, ELSET=T101, MATERIAL=M1
*MATERIAL, NAME=M1
*ELASTIC, TYPE=ISOTROPIC
6.825000E+004, 0.300000, 0.000000 
*DENSITY
0.000000
*EXPANSION, TYPE=ISO
1.200000E-005
*BOUNDARY
1, 4, 6
2, 4, 6
3, 4, 6
4, 4, 6
5, 4, 6
6, 4, 6
7, 4, 6
8, 4, 6
9, 4, 6
10, 4, 6
11, 4, 6
12, 4, 6
13, 4, 6
14, 4, 6
15, 4, 6
16, 4, 6
17, 4, 6
18, 4, 6
19, 4, 6
20, 4, 6
** ... 9928 like lines cut
9949, ENCASTRE
9950, 4, 6
9951, 4, 6
9952, 4, 6
9953, 4, 6
9954, 4, 6
9955, 4, 6
9956, 4, 6
9957, 4, 6
9958, 4, 6
9959, 4, 6
9960, 4, 6
9961, 4, 6
9962, 4, 6
9963, 4, 6
9964, 4, 6
9965, 4, 6
9966, 4, 6
9967, 4, 6
9968, 4, 6
9969, 4, 6
** ... 13451 like lines cut
*STEP
*STATIC
*CLOAD
1, 1, -666.7
3, 2, 666.7
5, 2, 666.7
6, 1, -666.7
9796, 2, 666.7
10106, 1, -666.7
*END STEP
