*HEADING
FV16_cantilevered_plate_abaqus ElType=C3D8I n1=10
*PART, NAME=part1
*END PART
*ASSEMBLY, NAME=ASSEM1
*INSTANCE, NAME=INSTNC1, PART=PART1
*NODE
1,0,0,0
2,1,0,0
3,2,0,0
4,3,0,0
5,4,0,0
6,5,0,0
7,6,0,0
8,7,0,0
9,8,0,0
10,9,0,0
11,10,0,0
12,0,1,0
13,1,1,0
14,2,1,0
15,3,1,0
16,4,1,0
17,5,1,0
18,6,1,0
19,7,1,0
20,8,1,0
** ... 585 like lines cut
*ELEMENT, TYPE =C3D8I, ELSET=All
1,1,2,13,12,122,123,134,133
2,122,123,134,133,243,244,255,254
3,243,244,255,254,364,365,376,375
4,364,365,376,375,485,486,497,496
5,12,13,24,23,133,134,145,144
6,133,134,145,144,254,255,266,265
7,254,255,266,265,375,376,387,386
8,375,376,387,386,496,497,508,507
9,23,24,35,34,144,145,156,155
10,144,145,156,155,265,266,277,276
11,265,266,277,276,386,387,398,397
12,386,387,398,397,507,508,519,518
13,34,35,46,45,155,156,167,166
14,155,156,167,166,276,277,288,287
15,276,277,288,287,397,398,409,408
16,397,398,409,408,518,519,530,529
17,45,46,57,56,166,167,178,177
18,166,167,178,177,287,288,299,298
19,287,288,299,298,408,409,420,419
20,408,409,420,419,529,530,541,540
** ... 380 like lines cut
*ORIENTATION,NAME=Global
1,0,0,0,1,0
1,0
*ORIENTATION,NAME=Rm
1,0,0,0,1,0
1,0
*SOLID SECTION,MATERIAL=Material,ORIENTATION =Rm,ELSET=All, CONTROLS  =Hourglass
*SURFACE SECTION, ELSET=Traction
*NSET, NSET=xfix
1,
12,
23,
34,
45,
56,
67,
78,
89,
100,
111,
122,
133,
144,
155,
166,
177,
188,
199,
210,
** ... 35 like lines cut
*NSET, NSET=yfix
1,
12,
23,
34,
45,
56,
67,
78,
89,
100,
111,
122,
133,
144,
155,
166,
177,
188,
199,
210,
** ... 35 like lines cut
*NSET, NSET=zfix
1,
12,
23,
34,
45,
56,
67,
78,
89,
100,
111,
122,
133,
144,
155,
166,
177,
188,
199,
210,
** ... 35 like lines cut
*END INSTANCE
*END ASSEMBLY
*MATERIAL,NAME=Material
*ELASTIC,TYPE=ISOTROPIC 
2e+11,0.3
*DENSITY 
8000
*STEP
*FREQUENCY, EIGENSOLVER=LANCZOS
6, , ,-1.E6 
*BOUNDARY
ASSEM1.INSTNC1.xfix,1
*BOUNDARY
ASSEM1.INSTNC1.yfix,2
*BOUNDARY
ASSEM1.INSTNC1.zfix,3
*ENERGY PRINT
*END STEP
